
 OpenBabel09111906393D

  3  2  0  0  0  0  0  0  0  0999 V2000
   -1.1185   -0.8057    0.0000 Co  0  0  0  0  0  0  0  0  0  0  0  0
    0.5860    0.6012    0.0000 Cl  0  0  0  0  0  0  0  0  0  0  0  0
   -2.8229   -2.2129    0.0000 Cl  0  0  0  0  0  0  0  0  0  0  0  0
  1  2  1  0  0  0  0
  1  3  1  0  0  0  0
M  END
